units(length='cm', time='s', quantity='mol', act_energy='kcal/mol')

ideal_gas(name='gas',
          elements="H D T C Ci O Oi N Ne Ar He Si S Cl",
          species="""Ar          Ne          NCC(1)      O2(2)
                     OH(3)       NH2(4)      H(5)        O(6)
                     H2(7)       H2O(8)      He(9)       HO2(10)
                     H2O2(11)    C2H6N(12)   C2H6N(13)   C2H6N(14)
                     CH3(15)     CH4(16)     NH3(17)     C2H5N(20)
                     C2H4N(21)   CH3CHN(22)  C2H5N(23)   C2H4(24)
                     CH2NH(25)   CH2NH2(26)  CH2CNH(27)  HCN(28)
                     CH3CN(29)   CO(30)      CO2(31)     HCO(32)
                     CH(34)      CH2(T)(35)  CH2O(36)    HCCO(37)
                     C2H2(39)    CH2(S)(41)  N2(42)      CH3O(44)
                     CH2CO(45)   C2H3(46)    C2H6(47)    C2H5(48)
                     CH2OH(49)   CH3CO(50)   CH2CHO(51)  N(53)
                     NO(54)      N2O(55)     NH(S)(56)   NO2(57)
                     NH(T)(59)   HNO(62)     NH2O(63)    NH2OH(64)
                     H2CN(68)    HCNH(69)    HNCO(74)    NCO(76)
                     CN(77)      HNOH(83)    HONO(85)    HNO2(86)
                     HNC(87)     CH3CNO(99)  S(106)      CH2CN(124)
                     CH3OO(128)  C2H4O(136)  C2H3N(163)  C2H4N(203)
                     N(210)      C2H5N(212)  CHO2(223)   C2H4O(235)
                     C2H3N(236)  C2H5N(243)  C2HN(251)   C2H3O(290)
                     N#N(369)""",
          reactions='all',
          transport='Mix',
          initial_state=state(temperature=300.0, pressure=OneAtm))

#-------------------------------------------------------------------------------
# Element data
#-------------------------------------------------------------------------------

element(symbol=u'Ci', atomic_mass=13.003)
element(symbol=u'D', atomic_mass=2.014)
element(symbol=u'Oi', atomic_mass=18.0)
element(symbol=u'T', atomic_mass=3.016)
#-------------------------------------------------------------------------------
# Species data
#-------------------------------------------------------------------------------

species(name=u'Ar',
        atoms='Ar:1',
        thermo=(NASA([100.00, 3802.52],
                     [ 2.50000000E+00,  2.64612706E-14, -3.72536449E-17,
                       1.71920118E-20, -2.44483017E-24, -7.45000000E+02,
                       4.36630363E+00]),
                NASA([3802.52, 5000.00],
                     [ 2.49999989E+00,  1.04239305E-10, -3.81844923E-14,
                       6.18592324E-18, -3.73869494E-22, -7.44999914E+02,
                       4.36630430E+00])),
        transport=gas_transport(geom='atom',
                                diam=3.33,
                                well_depth=136.501))

species(name=u'Ne',
        atoms='Ne:1',
        thermo=(NASA([200.00, 1000.00],
                     [ 2.50000000E+00,  0.00000000E+00,  0.00000000E+00,
                       0.00000000E+00,  0.00000000E+00, -7.45375000E+02,
                       3.35532000E+00]),
                NASA([1000.00, 6000.00],
                     [ 2.50000000E+00,  0.00000000E+00,  0.00000000E+00,
                       0.00000000E+00,  0.00000000E+00, -7.45375000E+02,
                       3.35532000E+00])),
        transport=gas_transport(geom='atom',
                                diam=3.758,
                                well_depth=148.6))

species(name=u'NCC(1)',
        atoms='H:7 C:2 N:1',
        thermo=(NASA([100.00, 958.02],
                     [ 3.04251103E+00,  1.38229436E-02,  2.67618779E-05,
                      -4.12218061E-08,  1.60900267E-11, -7.39483712E+03,
                       1.17955747E+01]),
                NASA([958.02, 5000.00],
                     [ 6.77193411E+00,  1.63523804E-02, -5.53944657E-06,
                       9.77847934E-10, -6.86719065E-14, -8.94005998E+03,
                      -1.03720345E+01])),
        transport=gas_transport(geom='nonlinear',
                                diam=5.118,
                                well_depth=237.1))

species(name=u'O2(2)',
        atoms='O:2',
        thermo=(NASA([100.00, 1087.70],
                     [ 3.53763748E+00, -1.22828235E-03,  5.36761059E-06,
                      -4.93131106E-09,  1.45956313E-12, -1.03799028E+03,
                       4.67179583E+00]),
                NASA([1087.70, 5000.00],
                     [ 3.16426909E+00,  1.69454239E-03, -8.00338615E-07,
                       1.59030731E-10, -1.14891576E-14, -1.04844402E+03,
                       6.08304814E+00])),
        transport=gas_transport(geom='linear',
                                diam=3.458,
                                well_depth=107.4,
                                polar=1.6,
                                rot_relax=3.8))

species(name=u'OH(3)',
        atoms='H:1 O:1',
        thermo=(NASA([100.00, 1005.25],
                     [ 3.48579710E+00,  1.33395207E-03, -4.70037628E-06,
                       5.64371842E-09, -2.06314525E-12,  3.41195697E+03,
                       1.99787223E+00]),
                NASA([1005.25, 5000.00],
                     [ 2.88224716E+00,  1.03869701E-03, -2.35657151E-07,
                       1.40241913E-11,  6.34477778E-16,  3.66956235E+03,
                       5.59056287E+00])),
        transport=gas_transport(geom='linear',
                                diam=2.75,
                                well_depth=80.0))

species(name=u'NH2(4)',
        atoms='H:2 N:1',
        thermo=(NASA([100.00, 1536.67],
                     [ 4.09067343E+00, -1.14347878E-03,  4.10346789E-06,
                      -2.45320155E-09,  4.75771129E-13,  2.11380574E+04,
                       2.84054028E-01]),
                NASA([1536.67, 5000.00],
                     [ 2.68451866E+00,  3.36693604E-03, -1.12917855E-06,
                       1.76950510E-10, -1.06998476E-14,  2.14698416E+04,
                       7.34544740E+00])),
        transport=gas_transport(geom='nonlinear',
                                diam=2.65,
                                well_depth=80.0,
                                polar=2.26,
                                rot_relax=4.0))

species(name=u'H(5)',
        atoms='H:1',
        thermo=(NASA([100.00, 3802.52],
                     [ 2.50000000E+00,  2.64612706E-14, -3.72536449E-17,
                       1.71920118E-20, -2.44483017E-24,  2.54727081E+04,
                      -4.59566246E-01]),
                NASA([3802.52, 5000.00],
                     [ 2.49999989E+00,  1.04239305E-10, -3.81844923E-14,
                       6.18592324E-18, -3.73869494E-22,  2.54727082E+04,
                      -4.59565585E-01])),
        transport=gas_transport(geom='atom',
                                diam=2.05,
                                well_depth=145.0))

species(name=u'O(6)',
        atoms='O:1',
        thermo=(NASA([100.00, 3802.52],
                     [ 2.50000000E+00,  2.64612706E-14, -3.72536449E-17,
                       1.71920118E-20, -2.44483017E-24,  2.92267216E+04,
                       5.11106770E+00]),
                NASA([3802.52, 5000.00],
                     [ 2.49999989E+00,  1.04239305E-10, -3.81844923E-14,
                       6.18592324E-18, -3.73869494E-22,  2.92267217E+04,
                       5.11106837E+00])),
        transport=gas_transport(geom='atom',
                                diam=2.75,
                                well_depth=80.0))

species(name=u'H2(7)',
        atoms='H:2',
        thermo=(NASA([100.00, 1962.85],
                     [ 3.42253737E+00,  2.86649693E-04, -4.14670636E-07,
                       4.27547938E-10, -9.38118752E-14, -1.02978490E+03,
                      -3.86364740E+00]),
                NASA([1962.85, 5000.00],
                     [ 2.74218763E+00,  5.79539425E-04,  1.97202790E-07,
                      -6.41094607E-11,  4.96003195E-15, -5.52037817E+02,
                       4.14097170E-01])),
        transport=gas_transport(geom='linear',
                                diam=2.92,
                                well_depth=38.0,
                                polar=0.79,
                                rot_relax=280.0))

species(name=u'H2O(8)',
        atoms='H:2 O:1',
        thermo=(NASA([100.00, 1281.44],
                     [ 3.99881998E+00, -5.54830890E-04,  2.76774199E-06,
                      -1.55664943E-09,  3.02330303E-13, -3.02745569E+04,
                      -3.08941355E-02]),
                NASA([1281.44, 5000.00],
                     [ 3.19560340E+00,  1.95240060E-03, -1.67118542E-07,
                      -2.97937711E-11,  4.45138533E-15, -3.00687021E+04,
                       4.04334670E+00])),
        transport=gas_transport(geom='nonlinear',
                                diam=2.605,
                                well_depth=572.402,
                                dipole=1.844,
                                rot_relax=4.0))

species(name=u'He(9)',
        atoms='He:1',
        thermo=(NASA([100.00, 3802.52],
                     [ 2.50000000E+00,  2.64612706E-14, -3.72536449E-17,
                       1.71920118E-20, -2.44483017E-24, -7.45000000E+02,
                       9.14221530E-01]),
                NASA([3802.52, 5000.00],
                     [ 2.49999989E+00,  1.04239305E-10, -3.81844923E-14,
                       6.18592324E-18, -3.73869494E-22, -7.44999914E+02,
                       9.14222191E-01])),
        transport=gas_transport(geom='atom',
                                diam=3.758,
                                well_depth=148.6))

species(name=u'HO2(10)',
        atoms='H:1 O:2',
        thermo=(NASA([100.00, 923.91],
                     [ 4.02956560E+00, -2.63992131E-03,  1.52232884E-05,
                      -1.71675002E-08,  6.26754855E-12,  3.22677038E+02,
                       4.84425976E+00]),
                NASA([923.91, 5000.00],
                     [ 4.15131581E+00,  1.91148933E-03, -4.11291286E-07,
                       6.34997902E-11, -4.86419113E-15,  8.34275459E+01,
                       3.09350090E+00])),
        transport=gas_transport(geom='nonlinear',
                                diam=3.458,
                                well_depth=107.4,
                                rot_relax=1.0))

species(name=u'H2O2(11)',
        atoms='H:2 O:2',
        thermo=(NASA([100.00, 923.27],
                     [ 3.72867096E+00,  4.13376404E-03,  5.67501209E-06,
                      -1.01866196E-08,  4.28614533E-12, -1.76963959E+04,
                       5.35911270E+00]),
                NASA([923.27, 5000.00],
                     [ 4.95151595E+00,  3.54230138E-03, -1.01040905E-06,
                       1.61942390E-10, -1.10209898E-14, -1.81227932E+04,
                      -1.52910800E+00])),
        transport=gas_transport(geom='nonlinear',
                                diam=3.458,
                                well_depth=107.4,
                                rot_relax=3.8))

species(name=u'C2H6N(12)',
        atoms='H:6 C:2 N:1',
        thermo=(NASA([100.00, 967.29],
                     [ 3.07651515E+00,  1.46365042E-02,  1.59418718E-05,
                      -2.83963944E-08,  1.13710595E-11,  1.72875032E+04,
                       1.34548736E+01]),
                NASA([967.29, 5000.00],
                     [ 6.63595763E+00,  1.39415225E-02, -4.72834709E-06,
                       8.38792677E-10, -5.89073632E-14,  1.59428168E+04,
                      -6.99036780E+00])),
        transport=gas_transport(geom='nonlinear',
                                diam=5.118,
                                well_depth=237.1))

species(name=u'C2H6N(13)',
        atoms='H:6 C:2 N:1',
        thermo=(NASA([100.00, 1263.30],
                     [ 2.87267913E+00,  2.18557994E-02, -7.35320969E-06,
                      -1.18853026E-09,  9.40388239E-13,  1.27078110E+04,
                       1.26915697E+01]),
                NASA([1263.30, 5000.00],
                     [ 5.95110531E+00,  1.65943720E-02, -6.43231286E-06,
                       1.13632007E-09, -7.59358496E-14,  1.15720652E+04,
                      -4.29630191E+00])),
        transport=gas_transport(geom='nonlinear',
                                diam=5.118,
                                well_depth=237.1))

species(name=u'C2H6N(14)',
        atoms='H:6 C:2 N:1',
        thermo=(NASA([100.00, 968.62],
                     [ 3.09000691E+00,  1.34304134E-02,  2.13609189E-05,
                      -3.45781588E-08,  1.35912772E-11,  1.65722192E+04,
                       1.22910565E+01]),
                NASA([968.62, 5000.00],
                     [ 6.94060288E+00,  1.39115038E-02, -4.75377697E-06,
                       8.56629445E-10, -6.10540737E-14,  1.50577416E+04,
                      -1.01301781E+01])),
        transport=gas_transport(geom='nonlinear',
                                diam=5.118,
                                well_depth=237.1))

species(name=u'CH3(15)',
        atoms='H:3 C:1',
        thermo=(NASA([100.00, 697.67],
                     [ 3.96043138E+00,  5.92935125E-04,  8.78577150E-06,
                      -9.88033015E-09,  3.63235751E-12,  1.64218817E+04,
                       3.39864228E-01]),
                NASA([697.67, 5000.00],
                     [ 3.09511224E+00,  5.55429795E-03, -1.88158803E-06,
                       3.13334875E-10, -2.05195058E-14,  1.65426191E+04,
                       4.20297679E+00])),
        transport=gas_transport(geom='nonlinear',
                                diam=3.8,
                                well_depth=144.001))

species(name=u'CH4(16)',
        atoms='H:4 C:1',
        thermo=(NASA([100.00, 1086.63],
                     [ 4.20579907E+00, -5.34366826E-03,  2.50471060E-05,
                      -2.12817040E-08,  5.93568648E-12, -1.01350050E+04,
                      -9.21351695E-01]),
                NASA([1086.63, 5000.00],
                     [ 8.96951701E-01,  1.14802026E-02, -4.58698426E-06,
                       8.32089271E-10, -5.68207060E-14, -9.69005941E+03,
                       1.40553442E+01])),
        transport=gas_transport(geom='nonlinear',
                                diam=3.746,
                                well_depth=141.4,
                                polar=2.6,
                                rot_relax=13.0))

species(name=u'NH3(17)',
        atoms='H:3 N:1',
        thermo=(NASA([100.00, 1006.39],
                     [ 4.08957369E+00, -2.03402738E-03,  1.13373121E-05,
                      -9.31050021E-09,  2.54829814E-12, -6.59063922E+03,
                       2.42031007E-02]),
                NASA([1006.39, 5000.00],
                     [ 2.11878774E+00,  6.46460042E-03, -2.32166334E-06,
                       3.94789430E-10, -2.58577566E-14, -6.22766659E+03,
                       9.37721252E+00])),
        transport=gas_transport(geom='nonlinear',
                                diam=2.92,
                                well_depth=481.001,
                                dipole=1.47,
                                rot_relax=10.0))

species(name=u'C2H5N(20)',
        atoms='H:5 C:2 N:1',
        thermo=(NASA([100.00, 980.53],
                     [ 3.50167668E+00,  4.04598282E-03,  3.83969419E-05,
                      -4.73326305E-08,  1.69602737E-11,  3.88277209E+03,
                       9.05077753E+00]),
                NASA([980.53, 5000.00],
                     [ 5.13186760E+00,  1.51183423E-02, -5.65298338E-06,
                       1.05028315E-09, -7.54035518E-14,  2.71111620E+03,
                      -3.12629850E+00])),
        transport=gas_transport(geom='nonlinear',
                                diam=5.118,
                                well_depth=237.1))

species(name=u'C2H4N(21)',
        atoms='H:4 C:2 N:1',
        thermo=(NASA([100.00, 952.09],
                     [ 3.50367773E+00,  1.56491490E-03,  4.68416426E-05,
                      -6.05261620E-08,  2.29032944E-11,  2.21057610E+04,
                       9.31881163E+00]),
                NASA([952.09, 5000.00],
                     [ 7.38657525E+00,  9.13068773E-03, -2.69892096E-06,
                       5.05478259E-10, -3.94705433E-14,  2.02841053E+04,
                      -1.49070103E+01])),
        transport=gas_transport(geom='nonlinear',
                                diam=5.118,
                                well_depth=237.1))

species(name=u'CH3CHN(22)',
        atoms='H:4 C:2 N:1',
        thermo=(NASA([100.00, 976.12],
                     [ 3.42506059E+00,  6.27219289E-03,  2.81975341E-05,
                      -3.81529305E-08,  1.42449319E-11,  2.21165599E+04,
                       8.84382208E+00]),
                NASA([976.12, 5000.00],
                     [ 6.19535204E+00,  1.10571088E-02, -3.95339761E-06,
                       7.41832999E-10, -5.43425896E-14,  2.08069504E+04,
                      -8.39222729E+00])),
        transport=gas_transport(geom='nonlinear',
                                diam=5.118,
                                well_depth=237.1))

species(name=u'C2H5N(23)',
        atoms='H:5 C:2 N:1',
        thermo=(NASA([100.00, 943.44],
                     [ 3.26407916E+00,  8.23095789E-03,  3.32160133E-05,
                      -4.79032686E-08,  1.88109446E-11,  5.58504283E+03,
                       9.14715383E+00]),
                NASA([943.44, 5000.00],
                     [ 7.36082769E+00,  1.10351741E-02, -3.31732095E-06,
                       5.77775910E-10, -4.20252572E-14,  3.91423693E+03,
                      -1.51368982E+01])),
        transport=gas_transport(geom='nonlinear',
                                diam=5.118,
                                well_depth=237.1))

species(name=u'C2H4(24)',
        atoms='H:4 C:2',
        thermo=(NASA([100.00, 979.37],
                     [ 3.97468590E+00, -4.75807831E-03,  4.16770646E-05,
                      -4.51375043E-08,  1.54217139E-11,  4.91540875E+03,
                       3.62441597E+00]),
                NASA([979.37, 5000.00],
                     [ 3.55671935E+00,  1.10625527E-02, -4.17007870E-06,
                       7.85560218E-10, -5.70038761E-14,  4.32041761E+03,
                       2.17655779E+00])),
        transport=gas_transport(geom='nonlinear',
                                diam=3.971,
                                well_depth=280.801,
                                rot_relax=1.5))

species(name=u'CH2NH(25)',
        atoms='H:3 C:1 N:1',
        thermo=(NASA([100.00, 1033.17],
                     [ 4.09206365E+00, -4.71654947E-03,  2.97525888E-05,
                      -2.89589459E-08,  9.03232838E-12,  9.46372277E+03,
                       4.30886201E+00]),
                NASA([1033.17, 5000.00],
                     [ 2.32334636E+00,  1.04449123E-02, -4.32970028E-06,
                       8.21589313E-10, -5.83889564E-14,  9.38547960E+03,
                       1.07522430E+01])),
        transport=gas_transport(geom='nonlinear',
                                diam=4.443,
                                well_depth=110.7))

species(name=u'CH2NH2(26)',
        atoms='H:4 C:1 N:1',
        thermo=(NASA([100.00, 2604.10],
                     [ 3.65406489E+00,  1.13451631E-02, -4.38160401E-06,
                       6.45704358E-10, -2.29048740E-14,  1.64348075E+04,
                       5.49925353E+00]),
                NASA([2604.10, 5000.00],
                     [ 9.55175605E+00,  4.36306153E-03, -1.55618397E-06,
                       2.28657761E-10, -1.22709566E-14,  1.26589356E+04,
                      -2.99504699E+01])),
        transport=gas_transport(geom='nonlinear',
                                diam=4.443,
                                well_depth=110.7))

species(name=u'CH2CNH(27)',
        atoms='H:3 C:2 N:1',
        thermo=(NASA([100.00, 963.26],
                     [ 3.53674797E+00,  5.31599444E-03,  2.13481559E-05,
                      -2.95486712E-08,  1.12093716E-11,  2.29606708E+04,
                       8.05740547E+00]),
                NASA([963.26, 5000.00],
                     [ 5.69304800E+00,  8.65442260E-03, -2.99250498E-06,
                       5.45322631E-10, -3.93668930E-14,  2.19749534E+04,
                      -5.22503805E+00])),
        transport=gas_transport(geom='nonlinear',
                                diam=5.118,
                                well_depth=237.1))

species(name=u'HCN(28)',
        atoms='H:1 C:1 N:1',
        thermo=(NASA([100.00, 953.96],
                     [ 3.35594257E+00,  1.81461304E-03,  6.01044990E-06,
                      -8.44328581E-09,  3.22804757E-12,  1.43403530E+04,
                       4.34116649E+00]),
                NASA([953.96, 5000.00],
                     [ 3.93178996E+00,  2.81623127E-03, -9.36043714E-07,
                       1.65068182E-10, -1.16592872E-14,  1.40750428E+04,
                       7.75453237E-01])),
        transport=gas_transport(geom='linear',
                                diam=3.63,
                                well_depth=569.002,
                                rot_relax=1.0))

species(name=u'CH3CN(29)',
        atoms='H:3 C:2 N:1',
        thermo=(NASA([100.00, 1014.53],
                     [ 3.58342910E+00,  6.02820043E-03,  1.47048028E-05,
                      -1.93937063E-08,  6.81836836E-12,  7.38115478E+03,
                       6.47484392E+00]),
                NASA([1014.53, 5000.00],
                     [ 4.35921429E+00,  1.09113084E-02, -4.25703111E-06,
                       7.82393736E-10, -5.47674716E-14,  6.81502901E+03,
                       7.06635880E-01])),
        transport=gas_transport(geom='nonlinear',
                                diam=5.118,
                                well_depth=237.1))

species(name=u'CO(30)',
        atoms='C:1 O:1',
        thermo=(NASA([100.00, 1669.93],
                     [ 3.59709700E+00, -1.02424105E-03,  2.83337168E-06,
                      -1.75825915E-09,  3.42589002E-13, -1.43431899E+04,
                       3.45822044E+00]),
                NASA([1669.93, 5000.00],
                     [ 2.92794155E+00,  1.81932674E-03, -8.35318506E-07,
                       1.51271276E-10, -9.88888126E-15, -1.42927004E+04,
                       6.51165566E+00])),
        transport=gas_transport(geom='linear',
                                diam=3.65,
                                well_depth=98.1,
                                polar=1.95,
                                rot_relax=1.8))

species(name=u'CO2(31)',
        atoms='C:1 O:2',
        thermo=(NASA([100.00, 988.18],
                     [ 3.27790813E+00,  2.75775674E-03,  7.12811616E-06,
                      -1.07857822E-08,  4.14241816E-12, -4.84756034E+04,
                       5.97853816E+00]),
                NASA([988.18, 5000.00],
                     [ 4.55069055E+00,  2.90732024E-03, -1.14645260E-06,
                       2.25802831E-10, -1.69530489E-14, -4.89860000E+04,
                      -1.45649601E+00])),
        transport=gas_transport(geom='linear',
                                diam=3.763,
                                well_depth=244.001,
                                polar=2.65,
                                rot_relax=2.1))

species(name=u'HCO(32)',
        atoms='H:1 C:1 O:1',
        thermo=(NASA([100.00, 1112.10],
                     [ 4.05936408E+00, -1.73846466E-03,  9.14981086E-06,
                      -8.01131581E-09,  2.25737286E-12,  3.84377617E+03,
                       3.32449698E+00]),
                NASA([1112.10, 5000.00],
                     [ 3.05136178E+00,  4.11706450E-03, -1.75586440E-06,
                       3.29302837E-10, -2.29174044E-14,  3.93007926E+03,
                       7.67464332E+00])),
        transport=gas_transport(geom='nonlinear',
                                diam=3.59,
                                well_depth=498.002))

species(name=u'CH(34)',
        atoms='H:1 C:1',
        thermo=(NASA([100.00, 971.39],
                     [ 3.53296068E+00, -5.84089919E-05, -6.75322261E-07,
                       1.93818558E-09, -9.35415890E-13,  7.05679539E+04,
                       1.86651665E+00]),
                NASA([971.39, 5000.00],
                     [ 2.74761734E+00,  1.51395336E-03, -5.37637641E-07,
                       8.28596100E-11, -4.75169778E-15,  7.07989201E+04,
                       6.03604786E+00])),
        transport=gas_transport(geom='linear',
                                diam=2.75,
                                well_depth=80.0))

species(name=u'CH2(T)(35)',
        atoms='H:2 C:1',
        thermo=(NASA([100.00, 1101.45],
                     [ 4.01171408E+00, -1.59920041E-04,  3.27673662E-06,
                      -2.41781539E-09,  5.74072882E-13,  4.60293987E+04,
                       5.37381139E-01]),
                NASA([1101.45, 5000.00],
                     [ 3.15290337E+00,  2.95890534E-03, -9.70592705E-07,
                       1.52925427E-10, -9.41510432E-15,  4.62185868E+04,
                       4.76363426E+00])),
        transport=gas_transport(geom='nonlinear',
                                diam=3.8,
                                well_depth=144.001))

species(name=u'CH2O(36)',
        atoms='H:2 C:1 O:1',
        thermo=(NASA([100.00, 1070.44],
                     [ 4.12927407E+00, -4.08396740E-03,  2.03227787E-05,
                      -1.83522311E-08,  5.37967692E-12, -1.44294638E+04,
                       3.22419885E+00]),
                NASA([1070.44, 5000.00],
                     [ 2.21174599E+00,  7.94262107E-03, -3.34191032E-06,
                       6.28466696E-10, -4.40427586E-14, -1.42974550E+04,
                       1.13047764E+01])),
        transport=gas_transport(geom='nonlinear',
                                diam=3.59,
                                well_depth=498.002,
                                rot_relax=2.0))

species(name=u'HCCO(37)',
        atoms='H:1 C:2 O:1',
        thermo=(NASA([100.00, 1026.66],
                     [ 3.46982944E+00,  1.03257095E-02, -7.56131896E-06,
                       2.00932730E-09,  1.02785398E-13,  2.01482280E+04,
                       7.08724238E+00]),
                NASA([1026.66, 5000.00],
                     [ 5.77905605E+00,  3.70729205E-03, -1.36680894E-06,
                       2.43625298E-10, -1.67891048E-14,  1.95487136E+04,
                      -4.72470681E+00])),
        transport=gas_transport(geom='nonlinear',
                                diam=2.5,
                                well_depth=150.001,
                                rot_relax=1.0))

species(name=u'C2H2(39)',
        atoms='H:2 C:2',
        thermo=(NASA([100.00, 962.80],
                     [ 3.11332489E+00,  6.02051818E-03,  5.33055775E-06,
                      -1.10296676E-08,  4.62874479E-12,  2.62179843E+04,
                       4.37936307E+00]),
                NASA([962.80, 5000.00],
                     [ 5.02075867E+00,  4.22473585E-03, -1.42002064E-06,
                       2.56109714E-10, -1.84548679E-14,  2.55666268E+04,
                      -6.22578026E+00])),
        transport=gas_transport(geom='linear',
                                diam=4.1,
                                well_depth=209.001,
                                rot_relax=2.5))

species(name=u'CH2(S)(41)',
        atoms='H:2 C:1',
        thermo=(NASA([100.00, 1446.07],
                     [ 4.10291121E+00, -1.43571604E-03,  5.43645808E-06,
                      -3.56747901E-09,  7.52419914E-13,  5.02791050E+04,
                      -4.17763895E-01]),
                NASA([1446.07, 5000.00],
                     [ 2.62906787E+00,  3.94647941E-03, -1.50052168E-06,
                       2.54855709E-10, -1.63167748E-14,  5.05688775E+04,
                       6.76439123E+00])),
        transport=gas_transport(geom='nonlinear',
                                diam=3.8,
                                well_depth=144.001))

species(name=u'N2(42)',
        atoms='N:2',
        thermo=(NASA([100.00, 1817.04],
                     [ 3.61262551E+00, -1.00892721E-03,  2.49897796E-06,
                      -1.43375041E-09,  2.58634192E-13, -1.05110286E+03,
                       2.65270497E+00]),
                NASA([1817.04, 5000.00],
                     [ 2.97592339E+00,  1.64138124E-03, -7.19707880E-07,
                       1.25374790E-10, -7.91505021E-15, -1.02585583E+03,
                       5.53744068E+00])),
        transport=gas_transport(geom='linear',
                                diam=3.621,
                                well_depth=97.53,
                                polar=1.76,
                                rot_relax=4.0))

species(name=u'CH3O(44)',
        atoms='H:3 C:1 O:1',
        thermo=(NASA([100.00, 985.46],
                     [ 3.95612350E+00, -3.06303535E-03,  3.06881383E-05,
                      -3.34120057E-08,  1.13927400E-11,  1.19253641E+03,
                       4.69437412E+00]),
                NASA([985.46, 5000.00],
                     [ 3.74494210E+00,  8.52623843E-03, -3.28788682E-06,
                       6.23959830E-10, -4.53272217E-14,  7.13044576E+02,
                       3.06609717E+00])),
        transport=gas_transport(geom='nonlinear',
                                diam=3.69,
                                well_depth=417.002,
                                dipole=1.7,
                                rot_relax=2.0))

species(name=u'CH2CO(45)',
        atoms='H:2 C:2 O:1',
        thermo=(NASA([100.00, 954.87],
                     [ 3.48300478E+00,  8.33006513E-03,  5.93356822E-06,
                      -1.33931150E-08,  5.73096290E-12, -7.31353106E+03,
                       6.51903117E+00]),
                NASA([954.87, 5000.00],
                     [ 5.88250166E+00,  5.80164687E-03, -1.91261194E-06,
                       3.35906183E-10, -2.37388618E-14, -8.11474914E+03,
                      -6.74227152E+00])),
        transport=gas_transport(geom='nonlinear',